
.subckt DESIGN_icn_ckt 1 2 
* Display all elements first 
TidlPart_27 3 0 2 0 z0=50 Td=2e-09 R=1e-5 
RidlPart_33 4 3 2.000000e+02
TidlPart_92 1 0 4 0 z0=40 Td=1e-10 R=1e-5 
.ends DESIGN_icn_ckt
