
*** Printing Custom Stimuli ***

.subckt DESIGN.IO2.1_stim 5 4 3
v_5 5 3 0
v_4 4 3 1
.ends DESIGN.IO2.1_stim

*** Printing Custom Stimuli ***

.subckt DESIGN.IO1.1_stim 5 4 3
v_5 5 3 1 (DC ..)

v_4 4 3  PWL (0 1 1.6e-07 1.0 1.61399e-07 0 3.2e-07 0 3.2241e-07 1.0 4.8e-07 1.0 4.81399e-07 0 6.4e-07 0 6.4241e-07 1.0 8e-07 1.0 8.01399e-07 0 9.6e-07 0 9.6241e-07 1.0 1.12e-06 1.0 1.1214e-06 0 1.28e-06 0 1.28241e-06 1.0 1.44e-06 1.0 1.4414e-06 0 1.92e-06 0 1.92241e-06 1.0 2.24e-06 1.0 2.2414e-06 0 2.4e-06 0 2.40241e-06 1.0 2.88e-06 1.0 2.8814e-06 0 3.04e-06 0 3.04241e-06 1.0 3.2e-06 1.0 3.2014e-06 0 3.36e-06 0 3.36241e-06 1.0 3.52e-06 1.0 3.5214e-06 0 3.68e-06 0 3.68241e-06 1.0 4e-06 1.0 4.0014e-06 0 4.16e-06 0 4.16241e-06 1.0 4.32e-06 1.0 4.3214e-06 0 4.48e-06 0 4.48241e-06 1.0 4.8e-06 1.0 4.8014e-06 0 5.12e-06 0 5.12241e-06 1.0 5.28e-06 1.0 5.2814e-06 0 5.44e-06 0 5.44241e-06 1.0 5.6e-06 1.0 5.6014e-06 0 5.76e-06 0 5.76241e-06 1.0 5.92e-06 1.0 5.9214e-06 0 6.24e-06 0 6.24241e-06 1.0 6.4e-06 1.0 6.4014e-06 0 6.56e-06 0 6.56241e-06 1.0 6.72e-06 1.0 6.7214e-06 0 6.88e-06 0 6.88241e-06 1.0 7.2e-06 1.0 7.2014e-06 0 7.52e-06 0 7.52241e-06 1.0 7.68e-06 1.0 7.6814e-06 0 7.84e-06 0 7.84241e-06 1.0 8e-06 1.0 8.0014e-06 0 8.16e-06 0 8.16241e-06 1.0 8.48e-06 1.0 8.4814e-06 0 8.64e-06 0 8.64241e-06 1.0 8.96e-06 1.0 8.9614e-06 0 9.28e-06 0 9.28241e-06 1.0 9.44e-06 1.0 9.4414e-06 0 9.6e-06 0 9.60241e-06 1.0 9.76e-06 1.0 9.7614e-06 0 9.92e-06 0 9.92241e-06 1.0 1.008e-05 1.0 1.00814e-05 0 1.04e-05 0 1.04024e-05 1.0 1.056e-05 1.0 1.05614e-05 0 1.072e-05 0 1.07224e-05 1.0 1.104e-05 1.0 1.10414e-05 0 1.12e-05 0 1.12024e-05 1.0 1.136e-05 1.0 1.13614e-05 0 1.152e-05 0 1.15224e-05 1.0 1.184e-05 1.0 1.18414e-05 0 1.216e-05 0 1.21624e-05 1.0 1.232e-05 1.0 1.23214e-05 0 1.248e-05 0 1.24824e-05 1.0 1.264e-05 1.0 1.26414e-05 0 1.28e-05 0 1.28024e-05 1.0 1.312e-05 1.0 1.31214e-05 0 1.328e-05 0 1.32824e-05 1.0 1.36e-05 1.0 1.36014e-05 0 1.392e-05 0 1.39224e-05 1.0 1.424e-05 1.0 1.42414e-05 0 1.44e-05 0 1.44024e-05 1.0 1.472e-05 1.0 1.47214e-05 0 1.504e-05 0 1.50424e-05 1.0 1.52e-05 1.0 1.52014e-05 0 1.536e-05 0 1.53624e-05 1.0 1.552e-05 1.0 1.55214e-05 0 1.568e-05 0 1.56824e-05 1.0 1.584e-05 1.0 1.58414e-05 0 1.616e-05 0 1.61624e-05 1.0 1.632e-05 1.0 1.63214e-05 0 1.648e-05 0 1.64824e-05 1.0 1.68e-05 1.0 1.68014e-05 0 1.696e-05 0 1.69624e-05 1.0 1.712e-05 1.0 1.71214e-05 0 1.728e-05 0 1.72824e-05 1.0 1.744e-05 1.0 1.74414e-05 0 1.76e-05 0 1.76024e-05 1.0 1.776e-05 1.0 1.77614e-05 0 1.792e-05 0 1.79224e-05 1.0 1.808e-05 1.0 1.80814e-05 0 1.84e-05 0 1.84024e-05 1.0 1.856e-05 1.0 1.85614e-05 0 1.872e-05 0 1.87224e-05 1.0 1.904e-05 1.0 1.90414e-05 0 1.92e-05 0 1.92024e-05 1.0 1.936e-05 1.0 1.93614e-05 0 1.952e-05 0 1.95224e-05 1.0 1.968e-05 1.0 1.96814e-05 0 2e-05 0 2.00024e-05 1.0 2.016e-05 1.0 2.01614e-05 0 2.032e-05 0 2.03224e-05 1.0 2.064e-05 1.0 2.06414e-05 0 2.08e-05 0 2.08024e-05 1.0 2.096e-05 1.0 2.09614e-05 0 2.112e-05 0 2.11224e-05 1.0 2.144e-05 1.0 2.14414e-05 0 2.16e-05 0 2.16024e-05 1.0 2.176e-05 1.0 2.17614e-05 0 2.208e-05 0 2.20824e-05 1.0 2.224e-05 1.0 2.22414e-05 0 2.24e-05 0 2.24024e-05 1.0 2.272e-05 1.0 2.27214e-05 0 2.288e-05 0 2.28824e-05 1.0 2.304e-05 1.0 2.30414e-05 0 2.32e-05 0 2.32024e-05 1.0 2.368e-05 1.0 2.36814e-05 0 2.384e-05 0 2.38424e-05 1.0 2.4e-05 1.0 2.40014e-05 0 2.416e-05 0 2.41624e-05 1.0 2.432e-05 1.0 2.43214e-05 0 2.448e-05 0 2.44824e-05 1.0 2.464e-05 1.0 2.46414e-05 0 2.48e-05 0 2.48024e-05 1.0 2.496e-05 1.0 2.49614e-05 0 2.512e-05 0 2.51224e-05 1.0 2.528e-05 1.0 2.52814e-05 0 2.56e-05 0 2.56024e-05 1.0 2.576e-05 1.0 2.57614e-05 0 2.592e-05 0 2.59224e-05 1.0 2.624e-05 1.0 2.62414e-05 0 2.64e-05 0 2.64024e-05 1.0 2.656e-05 1.0 2.65614e-05 0 2.672e-05 0 2.67224e-05 1.0 2.72e-05 1.0 2.72014e-05 0 2.752e-05 0 2.75224e-05 1.0 2.768e-05 1.0 2.76814e-05 0 2.784e-05 0 2.78424e-05 1.0 2.8e-05 1.0 2.80014e-05 0 2.816e-05 0 2.81624e-05 1.0 2.832e-05 1.0 2.83214e-05 0 2.864e-05 0 2.86424e-05 1.0 2.88e-05 1.0 2.88014e-05 0 2.896e-05 0 2.89624e-05 1.0 2.928e-05 1.0 2.92814e-05 0 2.944e-05 0 2.94424e-05 1.0 2.96e-05 1.0 2.96014e-05 0 2.976e-05 0 2.97624e-05 1.0 2.992e-05 1.0 ..)

.ends DESIGN.IO1.1_stim
